! Blank file in which we can put "overrides" for parameters
!VERBOSITY = 9
DEBUG = False
DEBUG_BT = False
